test/test_files/validation_tests/case6515rte_res.m
function mpc = case6515rte_res
%CASE6515RTE_RES

%% MATPOWER Case Format : Version 2
mpc.version = '2';

%%-----  Power Flow Data  -----%%
%% system MVA base
mpc.baseMVA = 100;

%% bus data
%    bus_i    type    Pd    Qd    Gs    Bs    area    Vm    Va    baseKV    zone    Vmax    Vmin
mpc.bus = [
    1    1    0    0    0    0    1    0.992673053    -12.8403638    45    1    1    0.888889;
    2    1    0    0    0    0    1    1.02546104    -9.78410998    63    1    1.06349    0.936508;
    3    1    14.8    3.8    0    0    1    1.00864352    -17.1827577    63    1    1.07937    0.952381;
    4    1    49.6    2.8    0    0    1    1.02422997    -30.3365086    90    1    1.08889    0.933333;
    5    1    12.9    0.9    0    0    1    1.00903346    -61.8341942    63    1    1.06349    0.952381;
    6    1    13    5.3    0    0    1    1.03039689    -21.8671146    63    1    1.07937    0.920635;
    7    1    2.3    0.2    0    0    1    1.04823977    -23.3261502    63    1    1.07937    0.920635;
    8    1    15.8    -0.3    0    0    1    1.04175443    -22.6525305    225    1    1.08889    0.888889;
    9    1    14.9    0    0    0    1    1.04155568    -20.2611849    63    1    1.06349    0.936508;
    10    1    0    0    0    0    1    1.0132689    -29.1395621    90    1    1.07778    0.922222;
    11    1    33.2    4.9    0    0    1    1.01326868    -29.1395596    90    1    1.07778    0.922222;
    12    1    0    0    0    0    1    1.01492906    -3.69060153    63    1    1.07937    0.952381;
    13    1    0    0    0    0    1    1.06112989    -5.52172836    380    1    1.10263    1.05271;
    14    1    63.2    13.3    0    30.4    1    1.05559116    -38.6797247    90    1    1.07778    0.977778;
    15    1    0    0    0    0    1    1.02066893    -25.2195205    63    1    1.07937    0.920635;
    16    1    13.9    1.9    0    0    1    1.03089961    -28.8951518    63    1    1.07937    0.920635;
    17    1    10.9    0.1    0    0    1    1.0419086    -35.4933221    90    1    1.06667    0.977778;
    18    1    0    0    0    0    1    0.938816922    -6.53255165    45    1    1    0.888889;
    19    1    1    0    0    0    1    1.0191583    -24.0776305    63    1    1.06349    0.936508;
    20    1    5.6    -18    0    0    1    0.939550372    -6.57180894    45    1    1    0.888889;
    21    1    7.6    -1.6    0    0    1    1.02352367    -23.3060459    90    1    1.06667    0.977778;
    22    1    18.5    1    0    0    1    1.00657521    -18.2390237    63    1    1.07937    0.952381;
    23    1    22.4    2.2    0    0    1    1.01974648    -11.4904546    63    1    1.06349    0.936508;
    24    1    17    -1.5    0    0    1    1.02620358    -28.890958    90    1    1.11111    0.955556;
    25    1    54.7    -1.1    0    0    1    1.06210876    -24.9280278    90    1    1.1    0.944444;
    26    1    15.1    10.6    0    0    1    1.01923141    -30.5552091    90    1    1.06667    0.977778;
    27    1    0    0    0    0    1    1.05630841    -25.6833241    225    1    1.08444    1.00444;
    28    1    0.9    -0.2    0    0    1    1.01919756    -24.3754614    63    1    1.07937    0.952381;
    29    1    76.5    9.4    0    0    1    0.992476949    -26.2673162    63    1    1.06349    0.968254;
    30    1    39.9    3.5    0    0    1    1.01607663    -29.4520467    90    1    1.08889    0.933333;
    31    1    0    0    0    0    1    1.04325949    -10.3654276    63    1    1.06349    0.936508;
    32    1    0    0    0    0    1    1.04825127    -5.16928762    150    1    1.10667    0.9;
    33    1    0    0    0    0    1    1.05862345    -7.52965935    225    1    1.08889    0.933333;
    34    1    0    0    0    0    1    1.05568978    -6.87149847    225    1    1.08889    0.933333;
    35    1    0    0    0    0    1    1.07212098    -6.26585096    380    1    1.10526    1.03947;
    36    1    0    0    0    0    1    1.07555326    -5.28439737    380    1    1.10526    1.03947;
    37    1    -2.7    3    0    0    1    1.01345584    -27.1469275    63    1    1.07937    0.920635;
    38    1    5    -1    0    0    1    1.02829837    -25.8616579    63    1    1.09524    0.936508;
    39    1    43.6    -2.9    0    0    1    1.01570694    -46.2088792    90    1    1.07778    0.977778;
    40    1    38.1    4.1    0    0    1    1.04839396    -36.8193411    90    1    1.07778    0.977778;
    41    1    0    0    0    0    1    1.05970736    -31.1585877    225    1    1.08889    1.00444;
    42    1    0    0    0    0    1    1.12316345    0.178034795    63    1    1.13099    0.952381;
    43    1    3.2    2.7    0    0    1    1.03415253    -33.0194341    90    1    1.07778    0.977778;
    44    1    13.3    0.1    0    0    1    1.02400777    -57.5161511    63    1    1.06349    0.952381;
    45    1    3.8    1.6    0    0    1    1.01408884    -40.0231001    90    1    1.06667    0.977778;
    46    1    0    0    0    0    1    1.0295612    -17.0986024    63    1    1.06349    0.936508;
    47    2    0    0    0    0    1    1.022    -13.006679    63    1    1.06349    0.936508;
    48    1    40.4    5.6    0    0    1    1.01540389    -30.4742927    90    1    1.07778    0.922222;
    49    1    9.8    -1.9    0    0    1    1.02413974    -18.4530926    63    1    1.06349    0.936508;
    50    1    0    0    0    0    1    1.06676705    -15.884426    63    1    1.06927    0.936508;
    51    1    0    0    0    0    1    1.05441946    -10.9123946    225    1    1.08889    0.933333;
    52    1    6.5    2.9    0    0    1    1.02819016    -42.0549158    90    1    1.06667    0.977778;
    53    1    0    -1.3    0    0    1    0.990894451    -33.1902967    63    1    1.04762    0.952381;
    54    1    0.3    -0.3    0    0    1    1.03197364    -22.2900686    90    1    1.06667    0.977778;
    55    1    50.9    12.3    0    0    1    1.06700841    -34.6073875    225    1    1.08889    1.00444;
    56    1    75.5    20.5    0    0    1    1.05516755    -29.8533821    225    1    1.08889    1.00444;
    57    2    0    0    0    0    1    1.058    -20.1625822    63    1    1.07937    0.920635;
    58    1    154    36.4    0    0    1    1.06686281    -34.6246611    225    1    1.08889    1.00444;
    59    1    5    1    0    0    1    1.02827765    -15.3788271    63    1    1.07937    0.952381;
    60    1    0    0    0    0    1    1.03376909    -9.96515282    63    1    1.07937    0.952381;
    61    1    46.3    11.9    0    0    1    1.0348985    -11.5535756    63    1    1.07937    0.952381;
    62    1    0    0    0    0    1    1.02055976    -9.93290622    63    1    1.07937    0.952381;
    63    1    16.8    2.9    0    0    1    1.01125339    -4.2590765    63    1    1.07937    0.952381;
    64    1    67.3    7.1    0    0    1    1.0546731    -22.3638978    225    1    1.08889    0.888889;
    65    1    12    2.8    0    0    1    1.04688111    -12.1856889    63    1    1.07937    0.952381;
    66    1    13    -6.4    0    0    1    1.0270722    -27.7589011    63    1    1.06349    0.936508;
    67    1    1    0    0    0    1    1.03945347    -23.5502184    63    1    1.07937    0.920635;
    68    1    53.1    1.1    0    0    1    1.01382376    -17.0620344    63    1    1.06349    0.936508;
    69    1    20.8    1.3    0    0    1    1.04182792    -62.4520564    63    1    1.06349    0.952381;
    70    1    10.6    4.2    0    0    1    1.02517776    -2.57642009    63    1    1.07937    0.952381;
    71    1    69.4    17.5    0    0    1    1.00979621    -33.35107    63    1    1.04762    0.952381;
    72    1    0    0    0    0    1    1.07727637    -26.6177635    225    1    1.08889    1.00444;
    73    1    0    0    0    0    1    1.07728776    -26.6170687    225    1    1.08889    1.00444;
    74    1    58.8    -5    0    0    1    1.05521642    -22.2028985    225    1    1.08889    0.888889;
    75    1    25.2    1.9    0    0    1    1.03831801    -25.8925778    90    1    1.06667    0.977778;
    76    1    5.9    -2.1    0    0    1    1.0767355    -0.73103357    225    1    1.08889    0.986667;
    77    1    43.7    0.4    0    0    1    1.01539335    -18.6742206    63    1    1.06349    0.936508;
    78    1    0    0    0    0    1    1.0381045    -26.0357435    63    1    1.07937    0.920635;
    79    1    0    0    0    0    1    1.00480897    -32.1637216    63    1    1.04762    0.952381;
    80    1    32.4    10.5    0    0    1    1.03513924    -31.7050861    225    1    1.08889    1.00444;
    81    1    32.4    9.1    0    0    1    1.03515795    -31.7050378    225    1    1.08889    1.00444;
    82    1    11.3    0.3    0    0    1    1.02513845    -19.7398709    63    1    1.06349    0.936508;
    83    1    79    24.8    0    0    1    1.04529914    -32.2810482    225    1    1.08889    1.00444;
    84    1    -0.1    0.4    0    0    1    1.01622729    -14.3037919    63    1    1.06349    0.936508;
    85    1    0.7    -1.5    0    0    1    1.04080844    -18.0937737    63    1    1.06349    0.936508;
    86    1    48.8    5.2    0    0    1    1.01614448    -49.920228    90    1    1.06667    0.977778;
    87    1    0    0    0    0    1    1.02330517    -4.28030735    63    1    1.07937    0.952381;
    88    1    14.8    -1.2    0    0    1    1.03614097    -22.0383216    63    1    1.06349    0.936508;
    89    1    26.2    0.3    0    0    1    1.02844336    -35.7545594    90    1    1.07778    0.977778;
    90    1    0.2    -2.3    0    0    1    0.942964456    -7.24730826    45    1    1    0.888889;
    91    1    0    0    0    0    1    0.938816922    -6.53255165    45    1    1    0.888889;
    92    1    31.8    1.1    0    0    1    1.00914596    -21.2539382    63    1    1.06349    0.968254;
    93    1    2    -2.8    0    0    1    0.954341187    -8.93805899    45    1    1    0.888889;
    94    1    18.2    -4    0    0    1    1.03482919    -29.3274874    90    1    1.06667    0.977778;
    95    1    57.2    9.4    0    0    1    1.02330918    -41.8900636    90    1    1.06667    0.977778;
    96    1    0.9    -0.2    0    0    1    1.05013886    -10.4657094    63    1    1.06349    0.936508;
    97    1    57.7    3.8    0    0    1    1.06376749    -23.1435125    63    1    1.07937    0.920635;
    98    1    9.5    1    0    0    1    1.01837901    -23.5948618    63    1    1.07937    0.952381;
    99    1    35.8    5.9    0    0    1    1.04200007    -11.2353692    63    1    1.07937    0.952381;
    100    1    63    7.8    0    0    1    1.01989873    -16.7169906    63    1    1.06349    0.936508;
    101    1    17.3    -0.8    0    0    1    1.00720077    -15.3953912    63    1    1.06349    0.936508;
    102    2    0    0    0    0    1    1.033    -17.5359818    63    1    1.07937    0.952381;
    103    1    12.6    -1.2    0    0    1    1.0340223    -10.2345172    63    1    1.07937    0.952381;
    104    1    0    0    0    0    1    1.06896147    -7.23857243    225    1    1.08889    0.986667;
    105    1    36.9    2.2    0    0    1    1.03585863    -20.6610718    225    1    1.08889    0.888889;
    106    1    58.2    10.7    0    0    1    1.04519922    -25.677444    90    1    1.1    0.944444;
    107    1    107    14.3    0    0    1    1.04050916    -31.5038428    225    1    1.08444    1.00889;
    108    1    12.2    -2.4    0    0    1    1.04638167    -31.1275582    90    1    1.07778    0.977778;
    109    1    67.8    8.7    0    0    1    1.03905101    -13.9603561    63    1    1.06349    0.936508;
    110    1    0    0    0    0    1    1.02643329    -9.98919251    225    1    1.08889    0.933333;
    111    1    38.7    -7.5    0    0    1    0.999939835    -23.8488886    63    1    1.06349    0.968254;
    112    1    0    0    0    0    1    1.00846719    -32.7176771    63    1    1.04762    0.952381;
    113    1    0    0    0    0    1    1.04193593    -29.0701893    225    1    1.08889    1.00444;
    114    1    13.4    1.1    0    0    1    1.05164353    -14.012465    63    1    1.06349    0.936508;
    115    1    0    0    0    0    1    1.06113909    -5.52181174    380    1    1.10526    1.05263;
    116    1    0    0    0    0    1    1.06113909    -5.52181174    380    1    1.10526    1.05263;
    117    1    14.9    0.2    0    0    1    1.01489567    -22.0528152    63    1    1.07937    0.952381;
    118    1    2    0.7    0    0    1    1.04071528    -25.5778502    90    1    1.06667    0.977778;
    119    1    40.6    6.9    0    0    1    1.00751508    -12.2861974    63    1    1.06349    0.936508;
    120    1    22    -2.3    0    0    1    1.02701827    -10.6678305    63    1    1.06349    0.936508;
    121    1    20.8    1.4    0    0    1    1.01905696    -28.4289172    63    1    1.07937    0.920635;
    122    2    0    0    0    0    1    1.026    -11.4825698    63    1    1.07937    0.952381;
    123    1    12    4.6    0    0    1    1.02345494    -11.6140582    63    1    1.07937    0.952381;
    124    1    8    -0.4    0    0    1    1.03058279    -32.03882    90    1    1.06667    0.977778;
    125    1    11.1    0.4    0    0    1    1.02451476    -17.606063    63    1    1.07937    0.952381;
    126    1    0.2    0.8    0    0    1    1.0420058    -18.1643656    63    1    1.06349    0.936508;
    127    1    14.7    2.7    0    0    1    1.00893682    -34.777836    63    1    1.04762    0.952381;
    128    1    13.8    7.2    0    0    1    1.02420697    -13.4436808    63    1    1.06349    0.968254;
    129    1    19.1    10.8    0    0    1    1.02228032    -11.677649    63    1    1.06349    0.968254;
    130    1    0    0    0    0    1    1.04938653    -10.7490942    225    1    1.08444    1.00889;
    131    1    119.3    12    0    0    1    1.0479766    -19.2901676    225    1    1.08444    1.00889;
    132    2    9.4    0    0    0    1    1.061    -17.3999228    90    1    1.07778    0.922222;
    133    1    2.7    0.4    0    0    1    0.977015673    -35.6971124    63    1    1.04762    0.952381;
    134    1    101.1    27.4    0    0    1    1.01919464    -32.3608191    225    1    1.08889    1.00444;
    135    1    0    0    0    0    1    1.06787852    -34.430454    225    1    1.08889    1.00444;
    136    1    23.9    1.4    0    0    1    1.0286017    -45.1557564    90    1    1.07778    0.977778;
    137    2    8.7    -3    0    0    1    1.021    -13.7673148    63    1    1.06349    0.968254;
    138    1    0    0    0    0    1    1.05230739    -11.8459972    150    1    1.08    0.966667;
    139    1    8    7.1    0    0    1    1.04648956    -14.9159392    63    1    1.07937    0.920635;
    140    1    0    0    0    80    1    1.07646103    -11.6882095    225    1    1.08889    1;
    141    1    0    0    0    0    1    1.08763345    -8.32186061    380    1    1.10526    1.05263;
    142    1    22.4    7.4    0    0    1    1.0322889    -14.8913926    63    1    1.07937    0.952381;
    143    1    0    0    0    0    1    1.06313798    -9.96293904    225    1    1.08889    0.986667;
    144    1    16    5    0    0    1    1.03309181    -26.8631279    90    1    1.11111    0.955556;
    145    1    23.4    9    0    0    1    1.05635444    -22.088586    225    1    1.08889    0.968889;
    146    1    0    0    0    0    1    1.07128281    -18.8727958    380    1    1.10526    1;
    147    1    30    5.5    0    0    1    1.04390747    -16.0668969    63    1    1.06349    0.936508;
    148    1    6.6    1.2    0    0    1    1.03749814    -13.2051343    63    1    1.06349    0.936508;
    149    1    16.9    4.1    0    0    1    1.03408374    -41.2168208    90    1    1.06667    0.977778;
    150    1    48.5    3.2    0    0    1    1.04112536    -10.8534807    63    1    1.06349    0.936508;
    151    1    0    0    0    0    1    0.980986545    -26.9297074    63    1    1.06349    0.968254;
    152    1    45.3    12    0    7.7    1    0.980839154    -25.6752485    63    1    1.06349    0.968254;
    153    1    27.3    -5.5    0    0    1    1.04181226    -13.2249629    63    1    1.06349    0.936508;
    154    1    0    0    0    0    1    1.06674442    -9.80020313    225    1    1.08889    0.933333;
    155    2    0    0    0    0    1    1.03406286    -20.2153641    63    1    1.07937    0.920635;
    156    1    0    0    0    0    1    0.980935917    -26.9346624    63    1    1.06349    0.968254;
    157    1    0    -2.2    0    0    1    0.935542797    -10.5302944    45    1    1    0.888889;
    158    2    0    0    0    0    1    0.959    -8.81517372    45    1    1    0.888889;
    159    1    0    0    0    0    1    1.03725795    -13.4585466    63    1    1.06349    0.936508;
    160    1    41.7    5.9    0    0    1    1.04467102    -19.1070438    225    1    1.08889    0.888889;
    161    1    43.7    10    0    0    1    1.04448642    -19.1109314    225    1    1.08889    0.888889;
    162    1    -0.3    -1.6    0    0    1    1.01339884    -30.3090276    90    1    1.06667    0.977778;
    163    1    0    0    0    0    1    1.02801672    -10.7182437    63    1    1.07937    0.952381;
    164    1    0    0    0    0    1    1.02801672    -10.7182437    63    1    1.07937    0.952381;
    165    1    16.5    14.6    0    0    1    1.05983202    -36.3081592    20    1    1.15    0.8;
    166    1    13.3    3.2    0    0    1    1.03524134    -40.7755575    90    1    1.06667    0.977778;
    167    1    17.8    -0.8    0    0    1    1.02999342    -41.2388322    90    1    1.06667    0.977778;
    168    1    0    0    0    0    1    1.05995949    -36.3017121    225    1    1.08444    1.00444;
    169    1    9.9    -0.9    0    0    1    1.01990728    -34.6444842    90    1    1.06667    0.977778;
    170    1    79.8    13.5    0    0    1    1.02344206    -35.0665954    90    1    1.07778    0.977778;
    171    1    28    0.8    0    30    1    1.04082814    -39.1212301    90    1    1.07778    0.977778;
    172    1    0    0    0    0    1    1.04692773    -34.5178659    225    1    1.08889    1.00444;
    173    1    28.5    8    0    0    1    1.0590281    -23.8231191    90    1    1.08889    0.933333;
    174    1    59.7    11.6    0    0    1    1.05612022    -26.5472916    90    1    1.11111    0.955556;
    175    1    0    0    0    0    1    1.03904928    -18.7246555    63    1    1.07937    0.920635;
    176    2    0    0    0    0    1    1.0990839    -16.9475537    150    1    1.1    0.9;
    177    1    0    0    0    0    1    1.06242188    -30.9951007    225    1    1.08889    1.00444;
    178    1    0    0    0    0    1    1.0624221    -30.9951019    225    1    1.08889    1.00444;
    179    1    0    0    0    0    1    1.00913769    -34.7636361    63    1    1.04762    0.952381;
    180    1    0    0    0    0    1    1.06242061    -30.9950938    225    1    1.08889    1.00444;
    181    1    12.7    -5.3    0    0    1    1.05536441    -25.4646998    63    1    1.07937    0.920635;
    182    1    16    3.1    0    0    1    1.03881223    -11.067495    63    1    1.06349    0.936508;
    183    1    5.5    -1.7    0    0    1    1.02470225    -22.7794203    63    1    1.07937    0.952381;
    184    1    5    1.4    0    0    1    1.06245646    -33.0990347    90    1    1.07778    0.977778;
    185    1    30.6    2.7    0    0    1    1.02299845    -15.8258521    63    1    1.07937    0.952381;
    186    1    1.2    0.2    0    0    1    1.02336192    -28.6549598    90    1    1.06667    0.977778;
    187    2    0    0    0    0    1    1.05073012    -20.4956927    63    1    1.07937    0.920635;
    188    1    0    0    0    0    1    1.09874151    -19.0592317    63    1    1.09875    0.920635;
    189    1    16.8    1.8    0    0    1    1.0371871    -24.0071098    63    1    1.07937    0.920635;
    190    2    0    0    0    0    1    0.952733632    -8.25686369    45    1    1    0.888889;
    191    1    15.4    -1.1    0    0    1    1.0202066    -34.576601    90    1    1.06667    0.977778;
    192    1    9.9    -0    0    0    1    1.05772429    -20.6353625    63    1    1.07937    0.920635;
    193    1    0.1    0.7    0    0    1    1.04211753    -29.6099825    225    1    1.08889    1.00444;
    194    2    0.7    -1.6    0    0    1    1.056    -24.8016216    63    1    1.07937    0.920635;
    195    1    0    0    0    0    1    1.04503309    -32.4537954    63    1    1.06362    0.952381;
    196    1    0    0    0    0    1    1.04503451    -32.453838    63    1    1.06362    0.952381;
    197    1    27.5    -0.6    0    15    1    1.0141897    -32.2383792    63    1    1.07937    0.920635;
    198    1    11.1    -0.8    0    0    1    1.02001475    -23.0324062    63    1    1.07937    0.920635;
    199    1    12.6    2.7    0    0    1    1.01797066    -48.3548298    90    1    1.06667    0.977778;
    200    1    0    0    0    0    1    1.08350696    -23.0853669    225    1    1.08889    1;
...
];

%% generator data
%    bus    Pg    Qg    Qmax    Qmin    Vg    mBase    status    Pmax    Pmin    Pc1    Pc2    Qc1min    Qc1max    Qc2min    Qc2max    ramp_agc    ramp_10    ramp_30    ramp_q    apf
mpc.gen = [
    4    0    0    0    0    1.025    100    0    12    0    0    0    0    0    0    0    0    0    0    0    0;
    4    0    0    0    0    1.025    100    0    10    0    0    0    0    0    0    0    0    0    0    0    0;
    5    0    0    0    0    1.016    100    0    9.1    0    0    0    0    0    0    0    0    0    0    0    0;
    11    0.05    0    0    0    1.014    100    1    28    0    0    0    0    0    0    0    0    0    0    0    0;
    11    0    0    0    0    1.014    100    0    18    0    0    0    0    0    0    0    0    0    0    0    0;
    17    0    0    0    0    1.045    100    0    8.2    0    0    0    0    0    0    0    0    0    0    0    0;
    19    0    0    0    0    1.02    100    0    1.2    0    0    0    0    0    0    0    0    0    0    0    0;
    22    0    0    0    0    1.007    100    0    10    0    0    0    0    0    0    0    0    0    0    0    0;
    24    0    0    0    0    1.027    100    0    16.1    0    0    0    0    0    0    0    0    0    0    0    0;
    24    0    0    0    0    1.027    100    0    35.5    0    0    0    0    0    0    0    0    0    0    0    0;
    25    0.22    0    0    0    1.064    100    1    36    0    0    0    0    0    0    0    0    0    0    0    0;
    25    0    0    0    0    1.064    100    0    27.2    0    0    0    0    0    0    0    0    0    0    0    0;
    40    0    0    0    0    1.054    100    0    8    0    0    0    0    0    0    0    0    0    0    0    0;
    47    27.5665507    -12.3560804    9.5    -10    1.022    100    1    16    0    0    0    0    0    0    0    0    0    0    0    0;
    47    8.56    -12.3560804    9.5    -10    1.022    100    1    16    0    0    0    0    0    0    0    0    0    0    0    0;
    48    0    0    0    0    1.017    100    0    23    0    0    0    0    0    0    0    0    0    0    0    0;
    48    0    0    0    0    1.017    100    0    24    0    0    0    0    0    0    0    0    0    0    0    0;
    57    4.74    1.38164773    1    0.9    1.058    100    1    13    0    0    0    0    0    0    0    0    0    0    0    0;
    64    0    0    0    0    1.056    100    0    24    0    0    0    0    0    0    0    0    0    0    0    0;
    64    0    0    0    0    1.056    100    0    27.6    0    0    0    0    0    0    0    0    0    0    0    0;
    69    0    0    0    0    1.045    100    0    30.04    0    0    0    0    0    0    0    0    0    0    0    0;
    70    0    0    0    0    1.026    100    0    23    0    0    0    0    0    0    0    0    0    0    0    0;
    85    0    0    0    0    1.042    100    0    6.68    0    0    0    0    0    0    0    0    0    0    0    0;
    86    0    0    0    0    1.019    100    0    9.2    0    0    0    0    0    0    0    0    0    0    0    0;
    102    17.16    -0.0592383212    21    -9    1.033    100    1    46    0    0    0    0    0    0    0    0    0    0    0    0;
    122    6.17    2.64653219    5    -2    1.026    100    1    12    0    0    0    0    0    0    0    0    0    0    0    0;
    124    0    0    0    0    1.032    100    0    9    0    0    0    0    0    0    0    0    0    0    0    0;
    125    5.16    0    0    0    1.026    100    1    26    0    0    0    0    0    0    0    0    0    0    0    0;
    125    1.16    0    0    0    1.026    100    1    12    0    0    0    0    0    0    0    0    0    0    0    0;
    132    12.3    -0.818018983    3    -3    1.061    100    1    17    0    0    0    0    0    0    0    0    0    0    0    0;
    132    0    0    1    -1    1.061    100    0    4    0    0    0    0    0    0    0    0    0    0    0    0;
    132    0    0    3    -3    1.061    100    0    14    0    0    0    0    0    0    0    0    0    0    0    0;
    132    0    0    3    -3    1.061    100    0    14    0    0    0    0    0    0    0    0    0    0    0    0;
    137    0    0    0.8    -0.8    1.021    100    0    18    0    0    0    0    0    0    0    0    0    0    0    0;
    137    7.21    -2.02071122    0.8    -0.8    1.021    100    1    18    0    0    0    0    0    0    0    0    0    0    0    0;
    155    0    0    1.76    -1.76    1.035    100    0    5.3    0    0    0    0    0    0    0    0    0    0    0    0;
    158    8.29    3.90306353    10    -13    0.959    100    1    17.9    0    0    0    0    0    0    0    0    0    0    0    0;
    158    8.29    3.90306353    10    -13    0.959    100    1    17.9    0    0    0    0    0    0    0    0    0    0    0    0;
    176    0    0    10    -4    1.1    100    0    30    0    0    0    0    0    0    0    0    0    0    0    0;
    187    0    0    8    -8    1.075    100    0    11    0    0    0    0    0    0    0    0    0    0    0    0;
    187    0    0    2    -2    1.075    100    0    11    0    0    0    0    0    0    0    0    0    0    0    0;
    190    0    0    14    -14    0.951    100    0    30    0    0    0    0    0    0    0    0    0    0    0    0;
    192    9.17    0    0    0    1.058    100    1    23.5    0    0    0    0    0    0    0    0    0    0    0    0;
    194    0.42    3.20767078    1    0.9    1.056    100    1    15    0    0    0    0    0    0    0    0    0    0    0    0;
    194    0.42    3.20767078    1    0.9    1.056    100    1    15    0    0    0    0    0    0    0    0    0    0    0    0;
    217    0    0    0    0    1.009    100    0    11.94    0    0    0    0    0    0    0    0    0    0    0    0;
    224    0    0    2    0    1.099    100    0    6    0    0    0    0    0    0    0    0    0    0    0    0;
    227    0    0    0    0    1.012    100    0    7.5    0    0    0    0    0    0    0    0    0    0    0    0;
    236    0    0    0    0    1.033    100    0    33.5    0    0    0    0    0    0    0    0    0    0    0    0;
    236    0    0    0    0    1.033    100    0    24.3    0    0    0    0    0    0    0    0    0    0    0    0;
    238    0    0    0    0    1.033    100    0    8    0    0    0    0    0    0    0    0    0    0    0    0;
    238    1.01    0    0    0    1.033    100    1    36    0    0    0    0    0    0    0    0    0    0    0    0;
    246    0    0    2    0    1.02    100    0    1    0    0    0    0    0    0    0    0    0    0    0    0;
    246    0    0    10    -10    1.02    100    0    31    0    0    0    0    0    0    0    0    0    0    0    0;
    246    0    0    10    -10    1.02    100    0    31    0    0    0    0    0    0    0    0    0    0    0    0;
    246    0    0    10    -10    1.02    100    0    31    0    0    0    0    0    0    0    0    0    0    0    0;
    256    7.15    -4.93939259    10    -10    1.047    100    1    26    0    0    0    0    0    0    0    0    0    0    0    0;
    256    12.15    -4.93939259    10    -10    1.047    100    1    26    0    0    0    0    0    0    0    0    0    0    0    0;
    258    25.37    1.62647413    1    0.9    1.078    100    1    30    0    0    0    0    0    0    0    0    0    0    0    0;
    261    0    0    4    -4    1.049    100    0    8    0    0    0    0    0    0    0    0    0    0    0    0;
    269    0    0    0    0    1.006    100    0    12.6    0    0    0    0    0    0    0    0    0    0    0    0;
    282    0    0    6.1    -6.2    1.02    100    0    11.6    0    0    0    0    0    0    0    0    0    0    0    0;
    295    0    0    0    0    1.044    100    0    25.3    0    0    0    0    0    0    0    0    0    0    0    0;
    296    3.05    0    0    0    1.008    100    1    12    0    0    0    0    0    0    0    0    0    0    0    0;
    305    0    0    9    -9    1.042    100    0    15    0    0    0    0    0    0    0    0    0    0    0    0;
    312    4.2    0    0    0    1.011    100    1    25.8    0    0    0    0    0    0    0    0    0    0    0    0;
    312    15.2    0    0    0    1.011    100    1    49.6    0    0    0    0    0    0    0    0    0    0    0    0;
    317    0    0    0    0    1.058    100    0    0    -7    0    0    0    0    0    0    0    0    0    0    0;
    317    0    0    0    0    1.058    100    0    0    -7    0    0    0    0    0    0    0    0    0    0    0;
    319    0    0    0.1    -0.1    1.038    100    0    10.8    0    0    0    0    0    0    0    0    0    0    0    0;
    325    0    0    4    -4    1.03    100    0    11    0    0    0    0    0    0    0    0    0    0    0    0;
    332    0    0    13    -9    1.038    100    0    25    0    0    0    0    0    0    0    0    0    0    0    0;
    333    0    0    13    -9    1.048    100    0    25    0    0    0    0    0    0    0    0    0    0    0    0;
    336    6.4    0.356758269    5    -6    1.023    100    1    13    0    0    0    0    0    0    0    0    0    0    0    0;
    338    0    0    10    -10    1.076    100    0    21    0    0    0    0    0    0    0    0    0    0    0    0;
    338    0    0    0.1    -0.1    1.076    100    0    2    0    0    0    0    0    0    0    0    0    0    0    0;
    345    0    0    0    0    1.027    100    0    2.3    0    0    0    0    0    0    0    0    0    0    0    0;
    345    0    0    0    0    1.027    100    0    19.5    0    0    0    0    0    0    0    0    0    0    0    0;
    348    0    0    0    0    1.047    100    0    22    0    0    0    0    0    0    0    0    0    0    0    0;
    357    0    0    0    0    0.996    100    0    12    0    0    0    0    0    0    0    0    0    0    0    0;
    357    0    0    0    0    0.996    100    0    12    0    0    0    0    0    0    0    0    0    0    0    0;
    364    125.15    39.2862954    59    -26    1.035    100    1    130    0    0    0    0    0    0    0    0    0    0    0    0;
    391    0    0    0    0    1.03    100    0    2.7    0    0    0    0    0    0    0    0    0    0    0    0;
    409    0    0    5    -5    1.034    100    0    18    0    0    0    0    0    0    0    0    0    0    0    0;
    411    0    0    0    0    1.027    100    0    10    0    0    0    0    0    0    0    0    0    0    0    0;
    411    0    0    0    0    1.027    100    0    11.5    0    0    0    0    0    0    0    0    0    0    0    0;
    431    0    0    0    0    1.049    100    0    12    0    0    0    0    0    0    0    0    0    0    0    0;
    440    0    0    10.96    -11.99    1.023    100    0    34.25    0    0    0    0    0    0    0    0    0    0    0    0;
    447    18.4    0.741050552    8    -9    0.997    100    1    25    0    0    0    0    0    0    0    0    0    0    0    0;
    462    0    0    0    0    1.046    100    0    2.4    0    0    0    0    0    0    0    0    0    0    0    0;
    462    0    0    0    0    1.046    100    0    16    0    0    0    0    0    0    0    0    0    0    0    0;
    464    3.68    2.6872966    6    -3    1.176    100    1    27    1    0    0    0    0    0    0    0    0    0    0    0;
    464    3.68    2.6872966    6    -3    1.176    100    1    27    1    0    0    0    0    0    0    0    0    0    0    0;
    466    0    0    19    -10    1.035    100    0    48    1    0    0    0    0    0    0    0    0    0    0    0;
    470    0    0    6    -6    1.045    100    0    10    0    0    0    0    0    0    0    0    0    0    0    0;
    470    0    0    5.4    -5.4    1.045    100    0    9    0    0    0    0    0    0    0    0    0    0    0    0;
    479    0    0    17    -16    1.022    100    0    27    0    0    0    0    0    0    0    0    0    0    0    0;
    479    0    0    17    -16    1.022    100    0    27    0    0    0    0    0    0    0    0    0    0    0    0;
    479    0    0    17    -16    1.022    100    0    27    0    0    0    0    0    0    0    0    0    0    0    0;
    491    0    0    8    -17    1.054    100    0    23.4    0    0    0    0    0    0    0    0    0    0    0    0;
    508    0    0    2    -2    1.027    100    0    4    0    0    0    0    0    0    0    0    0    0    0    0;
    519    0    0    0    0    0.999    100    0    10    0    0    0    0    0    0    0    0    0    0    0    0;
    520    0    0    0    0    1.025    100    0    12    0    0    0    0    0    0    0    0    0    0    0    0;
    530    1.92    0.905141509    4.8    -4.8    1.039    100    1    8    0    0    0    0    0    0    0    0    0    0    0    0;
    530    1.92    0.905141509    4.8    -4.8    1.039    100    1    8    0    0    0    0    0    0    0    0    0    0    0    0;
    530    1.92    0.905141509    4.8    -4.8    1.039    100    1    8    0    0    0    0    0    0    0    0    0    0    0    0;
    537    0    0    0    0    1.028    100    0    12    0    0    0    0    0    0    0    0    0    0    0    0;
    537    1.93    0    0    0    1.028    100    1    24    0    0    0    0    0    0    0    0    0    0    0    0;
    546    0    3.8948286    2    1.9    1.025    100    1    9    0    0    0    0    0    0    0    0    0    0    0    0;
    548    0    0    2    0    1.04    100    0    12    0    0    0    0    0    0    0    0    0    0    0    0;
    570    0    0    0    0    0.997    100    0    12    0    0    0    0    0    0    0    0    0    0    0    0;
    570    0    0    0    0    0.997    100    0    30    0    0    0    0    0    0    0    0    0    0    0    0;
    570    0    0    0    0    0.997    100    0    11.5    0    0    0    0    0    0    0    0    0    0    0    0;
    583    2.96    6.14320842    7    -4    1.009    100    1    16    0    0    0    0    0    0    0    0    0    0    0    0;
    585    0    0    0    0    0.986    100    0    9    0    0    0    0    0    0    0    0    0    0    0    0;
    586    0    0    5.7    -5.7    1.025    100    0    9.5    0    0    0    0    0    0    0    0    0    0    0    0;
    589    0    0    0.1    -0.1    1.018    100    0    1    0    0    0    0    0    0    0    0    0    0    0    0;
    593    0    0    10    -10    1.03    100    0    21    0    0    0    0    0    0    0    0    0    0    0    0;
    600    0    0    1    -1    1.03    100    0    6.1    0    0    0    0    0    0    0    0    0    0    0    0;
    610    39.05    -5.28048946    45    -45    1.021    100    1    45    0    0    0    0    0    0    0    0    0    0    0    0;
    610    0    0    45    -45    1.021    100    0    45    0    0    0    0    0    0    0    0    0    0    0    0;
    612    0    0    0    0    1    100    0    12    0    0    0    0    0    0    0    0    0    0    0    0;
    612    0    0    0    0    1    100    0    12    0    0    0    0    0    0    0    0    0    0    0    0;
    612    0    0    0    0    1    100    0    12    0    0    0    0    0    0    0    0    0    0    0    0;
    613    0    0    0    0    0.994    100    0    35    0    0    0    0    0    0    0    0    0    0    0    0;
    613    0    0    0    0    0.994    100    0    11.5    0    0    0    0    0    0    0    0    0    0    0    0;
    624    -4.11    -5.1867361    8.3    -8.3    1.047    100    1    8.3    -8.3    0    0    0    0    0    0    0    0    0    0    0;
    633    0    0    4    -4    1.028    100    0    7.3    0    0    0    0    0    0    0    0    0    0    0    0;
    636    0    0    7    0    0.999    100    0    15    0    0    0    0    0    0    0    0    0    0    0    0;
    636    1    4.67332346    7    0    0.999    100    1    15    0    0    0    0    0    0    0    0    0    0    0    0;
    646    197.89    5.72747719    80    -75    1.104    100    1    239    0    0    0    0    0    0    0    0    0    0    0    0;
    657    0    0    7    0    1.065    100    0    7    0    0    0    0    0    0    0    0    0    0    0    0;
    675    0    0    0    0    1.026    100    0    12    0    0    0    0    0    0    0    0    0    0    0    0;
    675    0.14    0    0    0    1.026    100    1    12    0    0    0    0    0    0    0    0    0    0    0    0;
    676    0    0    0    0    1.025    100    0    7.5    0    0    0    0    0    0    0    0    0    0    0    0;
    676    0    0    0    0    1.025    100    0    24    0    0    0    0    0    0    0    0    0    0    0    0;
    684    0    0    0    0    0.996    100    0    6.6    0    0    0    0    0    0    0    0    0    0    0    0;
    685    0    0    0    0    1.05    100    0    12    0    0    0    0    0    0    0    0    0    0    0    0;
    689    2.31    1.27817408    6    -5    0.966    100    1    9    0    0    0    0    0    0    0    0    0    0    0    0;
    689    2.31    1.27817408    6    -5    0.966    100    1    9    0    0    0    0    0    0    0    0    0    0    0    0;
    689    0    0    8    -5    0.966    100    0    11    0    0    0    0    0    0    0    0    0    0    0    0;
    689    2.31    2.41966028    8    -5    0.966    100    1    11    0    0    0    0    0    0    0    0    0    0    0    0;
    700    0    0    0    0    1.033    100    0    32.35    0    0    0    0    0    0    0    0    0    0    0    0;
    700    0    0    0    0    1.033    100    0    12    0    0    0    0    0    0    0    0    0    0    0    0;
    700    0    0    0    0    1.033    100    0    21    0    0    0    0    0    0    0    0    0    0    0    0;
    704    29.21    -6.22276836    15    -17    1.015    100    1    37    0    0    0    0    0    0    0    0    0    0    0    0;
    704    27.22    -6.22276836    15    -17    1.015    100    1    37    0    0    0    0    0    0    0    0    0    0    0    0;
    703    26.46    -6.64735574    15    -15    1.014    100    1    37    0    0    0    0    0    0    0    0    0    0    0    0;
    703    28.46    -6.64735574    15    -15    1.014    100    1    37    0    0    0    0    0    0    0    0    0    0    0    0;
    702    28.46    -6.62953515    15    -17    1.014    100    1    37    0    0    0    0    0    0    0    0    0    0    0    0;
    702    28.46    -6.62953515    15    -17    1.014    100    1    37    0    0    0    0    0    0    0    0    0    0    0    0;
    710    0    0    2    -2    0.963    100    0    4    0    0    0    0    0    0    0    0    0    0    0    0;
    710    0    0    2.5    -2.5    0.963    100    0    4    0    0    0    0    0    0    0    0    0    0    0    0;
    710    1    9.25029984    3    -3    0.963    100    1    5.7    0    0    0    0    0    0    0    0    0    0    0    0;
    710    0    0    6    -5    0.963    100    0    8.5    0    0    0    0    0    0    0    0    0    0    0    0;
    737    0    0    0    0    1.021    100    0    19.5    0    0    0    0    0    0    0    0    0    0    0    0;
    738    26.22    -3.60996942    18    -18    0.995    100    1    39    0    0    0    0    0    0    0    0    0    0    0    0;
    739    0.21    0    0    0    0.995    100    1    11.5    0    0    0    0    0    0    0    0    0    0    0    0;
    739    9.21    0    0    0    0.995    100    1    32    0    0    0    0    0    0    0    0    0    0    0    0;
    741    0    0    0    0    1.029    100    0    12    0    0    0    0    0    0    0    0    0    0    0    0;
    741    0    0    0    0    1.029    100    0    32    0    0    0    0    0    0    0    0    0    0    0    0;
    742    0    0    0.1    -0.1    1.034    100    0    5    0    0    0    0    0    0    0    0    0    0    0    0;
    749    0    0    3.97    -3.7    1.008    100    0    6.7    0    0    0    0    0    0    0    0    0    0    0    0;
    749    0    0    3.54    -3    1.008    100    0    5.6    0    0    0    0    0    0    0    0    0    0    0    0;
    750    5.08    -5.47629989    15    -15    1.002    100    1    26.6    0    0    0    0    0    0    0    0    0    0    0    0;
    751    1.88    5.31788791    2    -2    1.014    100    1    7    1    0    0    0    0    0    0    0    0    0    0    0;
    756    0    0    3    -3    1.02    100    0    5    -5    0    0    0    0    0    0    0    0    0    0    0;
    763    0    0    8    -8    1.05    100    0    23.5    0    0    0    0    0    0    0    0    0    0    0    0;
    765    0    0    0    0    1.037    100    0    6    0    0    0    0    0    0    0    0    0    0    0    0;
    766    0    0    0    0    1.036    100    0    6    0    0    0    0    0    0    0    0    0    0    0    0;
    765    16.81    -6.2900118    10    -6.42    1.037    100    1    37.5    0    0    0    0    0    0    0    0    0    0    0    0;
    766    15.91    -2.44806504    10    -6    1.036    100    1    37.5    0    0    0    0    0    0    0    0    0    0    0    0;
    767    0    0    0.06    -0.06    0.586    100    0    0.6    0    0    0    0    0    0    0    0    0    0    0    0;
    767    0    0    2.61    -2.61    0.586    100    0    26.1    0    0    0    0    0    0    0    0    0    0    0    0;
    767    0    0    0.16    -0.16    0.586    100    0    1.6    0    0    0    0    0    0    0    0    0    0    0    0;
    767    0    0    0.11    -0.11    0.586    100    0    1.1    0    0    0    0    0    0    0    0    0    0    0    0;
    771    0    0    0    0    1.011    100    0    37.5    0    0    0    0    0    0    0    0    0    0    0    0;
    771    1.22    0    0    0    1.011    100    1    34    0    0    0    0    0    0    0    0    0    0    0    0;
    791    0    0    26    -26    1.008    100    0    8    0    0    0    0    0    0    0    0    0    0    0    0;
    791    0    0    26    -26    1.008    100    0    15    0    0    0    0    0    0    0    0    0    0    0    0;
    792    0    0    26    -26    1.016    100    0    19    0    0    0    0    0    0    0    0    0    0    0    0;
    806    23.16    -6.98066701    15    -17    1.014    100    1    31    0    0    0    0    0    0    0    0    0    0    0    0;
    806    25.15    -6.98066701    15    -17    1.014    100    1    31    0    0    0    0    0    0    0    0    0    0    0    0;
    807    25.51    -4.72295772    15    -17    1.018    100    1    31    0    0    0    0    0    0    0    0    0    0    0    0;
    807    25.51    -4.72295772    15    -17    1.018    100    1    31    0    0    0    0    0    0    0    0    0    0    0    0;
    808    25.51    -6.00440059    15    -17    1.016    100    1    31    0    0    0    0    0    0    0    0    0    0    0    0;
    808    24.51    -6.00440059    15    -17    1.016    100    1    31    0    0    0    0    0    0    0    0    0    0    0    0;
    812    35.18    0    0    0    1.017    100    1    40.8    0    0    0    0    0    0    0    0    0    0    0    0;
    820    22.51    -3.29361539    6    -9    1.022    100    1    32    1    0    0    0    0    0    0    0    0    0    0    0;
    820    0    0    6    -9    1.022    100    0    32    1    0    0    0    0    0    0    0    0    0    0    0;
    821    23.41    -0.953900655    6    -9    1.022    100    1    32    1    0    0    0    0    0    0    0    0    0    0    0;
    821    23.41    -0.953900655    6    -9    1.022    100    1    32    1    0    0    0    0    0    0    0    0    0    0    0;
    821    20.41    -0.953900655    6    -9    1.022    100    1    32    1    0    0    0    0    0    0    0    0    0    0    0;
    821    22.41    -0.953900655    6    -9    1.022    100    1    32    1    0    0    0    0    0    0    0    0    0    0    0;
    831    0    0    3    -3    1.044    100    0    13    0    0    0    0    0    0    0    0    0    0    0    0;
    831    0    0    3    -3    1.044    100    0    7    0    0    0    0    0    0    0    0    0    0    0    0;
    834    0    0    0    0    1.051    100    0    2.4    0    0    0    0    0    0    0    0    0    0    0    0;
    835    7.42    0.163983367    10    -10    1.047    100    1    27    0    0    0    0    0    0    0    0    0    0    0    0;
    836    0    0    10    -10    0.981    100    0    20    0    0    0    0    0    0    0    0    0    0    0    0;
    838    0    0    3.14    -3.43    1.077    100    0    9.8    0    0    0    0    0    0    0    0    0    0    0    0;
...
];

%% branch data
%    fbus    tbus    r    x    b    rateA    rateB    rateC    ratio    angle    status    angmin    angmax    Pf    Qf    Pt    Qt
mpc.branch = [
    4647    1    0.005726    0.010482    0    0    0    0    1    0    1    0    0    -1.0000    1.0000    1.0001    -0.9998;
    5244    1    0.01284    0.025679    0    0    0    0    1    0    1    0    0    1.0004    -0.9993    -1.0001    0.9998;
    1682    2    0.005799    0.010615    0.0075    0    0    0    1    0    1    0    0    0.0000    -0.7886    -0.0000    0.0000;
    1673    3    0.134039    0.309398    0.0035    0    0    0    1    0    1    0    0    16.2834    1.6003    -15.9470    -1.1889;
    2303    3    0.049131    0.133283    0.0015    0    0    0    1    0    1    0    0    -1.1432    2.4682    1.1470    -2.6111;
    700    4    0.025926    0.109136    0.0002    0    0    0    1    0    1    0    0    12.4031    4.4192    -12.3609    -4.2626;
    3939    4    0.05    0.126914    0.0006    0    0    0    1    0    1    0    0    -3.7472    3.4528    3.7596    -3.4844;
    5046    4    0.02321    0.097407    0.0016    0    0    0    1    0    1    0    0    41.3762    -3.5314    -40.9987    4.9470;
    4413    5    0.040564    0.113631    0.0013    0    0    0    1    0    1    0    0    12.9666    0.9533    -12.9000    -0.9000;
    2779    6    0.006047    0.020912    0.0222    0    0    0    1    0    1    0    0    13.0106    2.9760    -13.0000    -5.3000;
    2780    7    0.012472    0.032099    0.0061    0    0    0    1    0    1    0    0    2.3006    -0.4689    -2.3000    -0.2000;
    2466    8    0.002607    0.017462    0.0324    540    540    540    1    0    1    0    0    15.8061    -3.7756    -15.8000    0.3000;
    470    9    0.053893    0.14258    0.0017    0    0    0    1    0    1    0    0    15.0103    0.1060    -14.9000    0.0000;
    11    10    0.000247    0.001235    0.0005    0    0    0    1    0    1    0    0    0.0000    -0.0436    -0.0000    -0.0077;
    11    10    0.000247    0.001235    0.0002    0    0    0    1    0    1    0    0    0.0000    -0.0282    -0.0000    0.0077;
    30    11    0.039753    0.100988    0.0047    0    0    0    1    0    1    0    0    -3.8461    4.1117    3.8591    -4.5626;
    2929    11    0.037654    0.096173    0.001    0    0    0    1    0    1    0    0    37.5115    1.4444    -37.0091    -0.2655;
    2181    12    0.014613    0.060721    0.0008    0    0    0    1    0    1    0    0    7.7999    2.8770    -7.7902    -2.9190;
    4017    12    0.034064    0.121139    0.0015    0    0    0    1    0    1    0    0    7.7333    3.0665    -7.7105    -3.1410;
    4019    12    0.000242    0.000442    0.0004    0    0    0    1    0    1    0    0    -15.5000    -6.1000    15.5007    6.0600;
    115    13    2.1e-05    0.000125    0.1386    737    737    737    1    0    1    0    0    -0.0000    -0.0000    0.0000    -15.6064;
    2337    13    0.000145    0.001877    0.0635    2487    2487    2487    1    0    1    0    0    -295.5841    -69.6320    295.7026    64.0264;
    4577    13    0.000319    0.003234    0.0838    1841    1841    1841    1    0    1    0    0    295.9525    25.8960    -295.7026    -32.8137;
    116    13    2.1e-05    0.000125    0.1386    737    737    737    1    0    1    0    0    -0.0000    -0.0000    0.0000    -15.6064;
    1225    14    0.04    0.134198    0.0274    0    0    0    1    0    1    0    0    -51.4086    -7.0359    52.4242    7.4740;
    2874    14    0.012222    0.052346    0.0026    0    0    0    1    0    1    0    0    -41.3036    0.6939    41.4924    -0.1736;
    4595    14    0.007284    0.045432    0.0024    0    0    0    1    0    1    0    0    122.4417    5.3045    -121.4770    0.4426;
    4955    14    0.059963    0.154222    0.0236    0    0    0    1    0    1    0    0    -34.6798    -6.4852    35.3801    5.7286;
    5230    14    0.018025    0.110988    0.0073    0    0    0    1    0    1    0    0    -10.4243    -7.2551    10.4499    6.6065;
    2874    14    0.012222    0.052593    0.0032    0    0    0    1    0    1    0    0    -41.1204    0.6142    41.3076    -0.1639;
    4595    14    0.007284    0.044938    0.0024    0    0    0    1    0    1    0    0    123.7627    5.1501    -122.7772    0.6597;
    2906    15    0.037541    0.100529    0.0011    0    0    0    1    0    1    0    0    -35.6668    7.5337    36.1521    -6.3481;
    4124    15    0.090199    0.211388    0.0023    0    0    0    1    0    1    0    0    -1.5364    -3.6332    1.5494    3.4260;
    4455    15    0.09801    0.267574    0    0    0    0    1    0    1    0    0    39.0467    0.7506    -37.7015    2.9222;
    249    16    0.071806    0.191484    0.0019    0    0    0    1    0    1    0    0    5.4568    -0.6478    -5.4366    0.4992;
    337    16    0.119174    0.284958    0.0044    0    0    0    1    0    1    0    0    8.5490    2.1289    -8.4634    -2.3992;
    5834    17    0.022346    0.061111    0.0029    0    0    0    1    0    1    0    0    10.9245    -0.1486    -10.9000    -0.1000;
    3727    18    0.009383    0.019753    0    0    0    0    1    0    1    0    0    0.0000    -0.0000    -0.0000    0.0000;
    5094    19    0.000252    0.000504    0    0    0    0    1    0    1    0    0    1.0000    0.0000    -1.0000    -0.0000;
    3727    20    0.001975    0.004444    0    0    0    0    1    0    1    0    0    5.6080    -17.9821    -5.6000    18.0000;
    1354    21    0.036296    0.099012    0.0045    0    0    0    1    0    1    0    0    -11.0308    -0.7500    11.0734    0.3969;
    1598    21    0.032716    0.089136    0.0057    0    0    0    1    0    1    0    0    18.7830    -1.5044    -18.6734    1.2031;
    1843    22    0.138574    0.351474    0.0058    0    0    0    1    0    1    0    0    16.8782    -0.5890    -16.5036    0.9396;
    5023    22    0.094407    0.210456    0.0044    0    0    0    1    0    1    0    0    2.0029    1.5057    -1.9964    -1.9396;
    1157    23    0.047115    0.117158    0.001    0    0    0    1    0    1    0    0    12.3306    0.6129    -12.2624    -0.5479;
    2703    23    0.039557    0.120937    0.0132    0    0    0    1    0    1    0    0    20.3145    0.7284    -20.1595    -1.6398;
    3425    23    0.022676    0.062484    0.0007    0    0    0    1    0    1    0    0    -10.0000    -0.0000    10.0219    -0.0123;
    144    24    0.064568    0.16716    0.0113    0    0    0    1    0    1    0    0    21.0926    -4.0961    -20.8161    3.6140;
    1282    24    0.048605    0.128481    0.0062    0    0    0    1    0    1    0    0    -3.8079    1.4824    3.8161    -2.1140;
    490    25    0.004815    0.02963    0.0016    0    0    0    1    0    1    0    0    28.1694    -11.6886    -28.1297    11.7531;
    2093    25    0.007309    0.04463    0.0073    0    0    0    1    0    1    0    0    26.4021    10.1410    -26.3503    -10.6531;
    612    26    0.034321    0.145802    0.0073    0    0    0    1    0    1    0    0    -44.5897    -3.2180    45.2780    5.3997;
    1866    26    0.004815    0.009753    0.0005    0    0    0    1    0    1    0    0    -15.0000    2.0000    15.0106    -2.0304;
    2602    26    0.049012    0.133704    0.0063    0    0    0    1    0    1    0    0    -37.8012    10.8041    38.5412    -9.4367;
    2922    26    0.04642    0.126543    0.0058    0    0    0    1    0    1    0    0    -11.5317    1.3155    11.5927    -1.7498;
    3339    26    0.046296    0.125926    0.006    0    0    0    1    0    1    0    0    -56.2204    0.6034    57.7090    2.8390;
    4632    26    0.053704    0.136753    0.0065    0    0    0    1    0    1    0    0    -46.3656    6.3255    47.5410    -3.9961;
    2922    26    0.03358    0.120988    0.0062    0    0    0    1    0    1    0    0    -12.4786    0.4080    12.5295    -0.8668;
    536    27    0.006163    0.041067    0.0759    446    446    446    1    0    1    0    0    137.2652    -23.8984    -136.2010    22.5293;
    2350    27    0.000652    0.004369    0.0081    558    558    558    1    0    1    0    0    107.7437    43.7548    -107.6648    -44.1321;
    2684    28    0.050945    0.131922    0.0015    0    0    0    1    0    1    0    0    11.9342    -0.2552    -11.8651    0.2775;
    3892    28    0.058781    0.149005    0.0017    0    0    0    1    0    1    0    0    -10.8971    0.0744    10.9651    -0.0775;
    2887    29    0.067019    0.137566    0.0037    0    0    0    1    0    1    0    0    34.5717    -18.1362    -33.5320    19.9069;
    3321    29    0.032754    0.088939    0.0039    0    0    0    1    0    1    0    0    20.5365    14.1181    -20.3359    -13.9651;
    3321    29    0.030184    0.080096    0.0053    0    0    0    1    0    1    0    0    22.8587    15.4111    -22.6320    -15.3418;
    144    30    0.066049    0.187778    0.0099    0    0    0    1    0    1    0    0    25.5791    0.4062    -25.1737    -0.2929;
    1553    30    0.065062    0.133704    0.0062    0    0    0    1    0    1    0    0    -5.4356    7.2770    5.4899    -7.8094;
    4841    30    0.041728    0.106049    0.005    0    0    0    1    0    1    0    0    16.4786    -0.7341    -16.3701    0.4906;
    150    31    0.009574    0.03875    0.0114    0    0    0    1    0    1    0    0    -23.8139    -0.3664    23.8640    -0.6691;
    3162    31    0.000171    0.000313    0.0002    0    0    0    1    0    1    0    0    -0.3000    0.2000    0.3000    -0.2218;
    3692    31    0.034266    0.09423    0.001    0    0    0    1    0    1    0    0    -36.2566    10.2277    36.7065    -9.0989;
    4741    31    0.006803    0.028219    0    0    0    0    1    0    1    0    0    -13.1026    -7.6710    13.1171    7.7311;
    150    31    0.008566    0.037541    0.0121    0    0    0    1    0    1    0    0    -24.6862    -0.8366    24.7344    -0.2666;
    3729    32    0.009733    0.034089    0.0185    0    0    0    1    0    1    0    0    38.9584    4.6819    -38.8225    -6.2491;
    366    34    0.000277    0.002015    0.003    288    288    288    1    0    1    0    0    27.8723    -55.1677    -27.8628    54.9025;
    1017    33    0.00881    0.033995    0.0607    289    289    289    1    0    1    0    0    -89.4936    15.5425    90.1536    -19.7866;
    1158    33    0.004642    0.019832    0.0354    255    255    255    1    0    1    0    0    -16.9214    -31.0159    16.9688    27.2744;
    2580    34    0.008861    0.03506    0.0623    288    288    288    1    0    1    0    0    13.7302    -35.5497    -13.6313    29.0609;
    2704    34    0.006993    0.032869    0.0557    255    255    255    1    0    1    0    0    -13.4568    -14.6530    13.4768    8.5656;
    4746    33    0.002173    0.008731    0.0152    0    0    0    1    0    1    0    0    -29.0443    -8.3642    29.0618    6.7330;
    4858    34    0.00077    0.003121    0.0051    0    0    0    1    0    1    0    0    -22.2903    16.5307    22.2956    -17.0774;
    5671    33    0.004109    0.016138    0.0284    288    288    288    1    0    1    0    0    38.2224    -29.5157    -38.1398    26.6659;
    368    35    8.3e-05    0.000907    0.0202    1034    1034    1034    1    0    1    0    0    137.9400    -89.4147    -137.9206    87.3061;
    1109    35    0.000552    0.006726    0.0939    1786    1786    1786    1    0    1    0    0    386.1040    -58.0928    -385.3726    56.2281;
    2150    35    0.000512    0.008012    0.2455    2462    2462    2462    1    0    1    0    0    351.2117    -21.3485    -350.6629    1.6966;
    3135    35    0.001107    0.00918    0.1906    1644    1644    1644    1    0    1    0    0    -250.4648    8.0691    251.0738    -24.9034;
    367    36    6.2e-05    0.000741    0.0173    1095    1095    1095    1    0    1    0    0    130.8600    9.6023    -130.8508    -11.4935;
    2150    35    0.000512    0.008019    0.2455    2462    2462    2462    1    0    1    0    0    350.9068    -21.3227    -350.3589    1.6634;
    2150    36    0.001153    0.013123    0.1841    1433    1433    1433    1    0    1    0    0    62.4417    -37.2404    -62.3956    16.5206;
    5229    37    0.055933    0.120685    0.0013    0    0    0    1    0    1    0    0    -21.9527    6.4504    22.2410    -5.9612;
    5515    37    0.039053    0.084404    0.001    0    0    0    1    0    1    0    0    19.6896    -2.7432    -19.5410    2.9612;
    730    38    0.00252    0.006551    0.0001    0    0    0    1    0    1    0    0    5.0006    -1.0090    -5.0000    1.0000;
    1229    39    0.009877    0.042222    0.0021    0    0    0    1    0    1    0    0    48.5099    -1.6390    -48.2861    2.3783;
    5809    39    0.024815    0.063086    0.0029    0    0    0    1    0    1    0    0    -52.2966    3.2784    52.9722    -1.8566;
    1229    39    0.009877    0.042222    0.0021    0    0    0    1    0    1    0    0    48.5099    -1.6390    -48.2861    2.3783;
    2251    40    0.056173    0.142593    0.0066    0    0    0    1    0    1    0    0    18.2033    -6.0674    -18.0179    5.8115;
    4595    40    0.034444    0.109012    0.0076    0    0    0    1    0    1    0    0    20.2367    9.5522    -20.0821    -9.9115;
    430    41    0.000158    0.000672    0.0719    331    331    331    1    0    1    0    0    16.2005    -5.1972    -16.2001    -2.8756;
    3953    41    4.5e-05    8.9e-05    0.002    268    268    268    1    0    1    0    0    -16.2000    -3.1000    16.2001    2.8756;
    1484    42    0.01096    0.020063    0.009    0    0    0    1    0    1    0    0    0.0208    -0.3275    -0.0208    -0.8079;
    2765    42    0.002268    0.008818    0.0099    0    0    0    1    0    1    0    0    -0.0208    -2.0565    0.0208    0.8079;
    2724    43    0.001481    0.006296    0.0039    0    0    0    1    0    1    0    0    3.2002    2.2838    -3.2000    -2.7000;
    3488    44    0.050617    0.137012    0.009    0    0    0    1    0    1    0    0    28.0899    -11.1526    -27.6528    11.3932;
    4322    44    0.074326    0.194507    0.0021    0    0    0    1    0    1    0    0    -14.1150    11.8929    14.3528    -11.4932;
    5097    45    0.000247    0.000741    0    0    0    0    1    0    1    0    0    3.8000    1.6001    -3.8000    -1.6000;
...